360
ZTC_defectN
 C   17.766067   14.461255   21.229740
 C    2.840260    5.731067   21.643743
 C    3.177240   15.626243   11.748567
 C   21.229740   17.766067   14.461255
 C   21.643743    2.840260    5.731067
 C    3.591244    0.286433   20.892759
 C   14.461255   21.229740   17.766067
 C    5.731067   21.643743    2.840260
 C   15.626243   11.748567    3.177240
 C    6.303933    2.426256   14.875261
 C   20.478755   12.321433   15.212241
 C   20.892759    3.591244    0.286433
 C   12.321433   15.212241   20.478755
 C   15.212241   20.478755   12.321433
 C    8.443756   23.783567    8.857761
 C   18.338934    9.608744    9.194740
 C    9.608744    9.194740   18.338934
 C   14.875261    6.303933    2.426256
 C    2.426256   14.875261    6.303933
 C   23.783567    8.857761    8.443756
 C    8.857761    8.443756   23.783567
 C   11.748567    3.177240   15.626243
 C    0.286433   20.892759    3.591244
 C    9.194740   18.338934    9.608744
 C   18.940684   14.636967   20.420988
 C    3.649012    6.905683   21.468033
 C    2.368488   15.450533   12.923184
 C   20.420988   18.940684   14.636967
 C   21.468033    3.649012    6.905683
 C    3.415533   23.181816   21.701512
 C   14.636967   20.420988   18.940684
 C    6.905683   21.468033    3.649012
 C   15.450533   12.923184    2.368488
 C    5.129317    2.601967   15.684012
 C   20.654467   11.146817   14.403488
 C   21.701512    3.415533   23.181816
 C   11.146817   14.403488   20.654467
 C   14.403488   20.654467   11.146817
 C    8.619467    0.888183    9.666511
 C   17.164316    9.433033    8.385988
 C    9.433033    8.385988   17.164316
 C   15.684012    5.129317    2.601967
 C    2.601967   15.684012    5.129317
 C    0.888183    9.666511    8.619467
 C    9.666511    8.619467    0.888183
 C   12.923184    2.368488   15.450533
 C   23.181816   21.701512    3.415533
 C    8.385988   17.164316    9.433033
 C   15.558849   15.383137   22.141993
 C    1.928007    3.523848   20.721862
 C    4.089493   14.704362    9.541348
 C   22.141993   15.558849   15.383137
 C   20.721862    1.928007    3.523848
 C    2.669363    2.493652   19.980507
 C   15.383137   22.141993   15.558849
 C    3.523848   20.721862    1.928007
 C   14.704362    9.541348    4.089493
 C    8.511152    3.348137   13.963007
 C   21.400637   14.528652   16.124493
 C   19.980507    2.669363    2.493652
 C   14.528652   16.124493   21.400637
 C   16.124493   21.400637   14.528652
 C    9.365637   21.576347    7.945507
 C   20.546152    8.686863   10.106993
 C    8.686863   10.106993   20.546152
 C   13.963007    8.511152    3.348137
 C    3.348137   13.963007    8.511152
 C   21.576347    7.945507    9.365637
 C    7.945507    9.365637   21.576347
 C    9.541348    4.089493   14.704362
 C    2.493652   19.980507    2.669363
 C   10.106993   20.546152    8.686863
 C   19.217487   19.980507   17.985104
 C    6.084896    7.182488   16.124493
 C   24.002603   10.106993   13.199989
 C   17.985104   19.217487   19.980507
 C   16.124493    6.084896    7.182488
 C   22.141993   22.905012    0.067396
 C   19.980507   17.985104   19.217487
 C    7.182488   16.124493    6.084896
 C   10.106993   13.199989   24.002603
 C    4.852512    7.945507   18.119895
 C    1.928007   10.870012   11.967603
 C    0.067396   22.141993   22.905012
 C   10.870012   11.967603    1.928007
 C   11.967603    1.928007   10.870012
 C   13.963007    1.164988   12.102396
 C   16.887512    4.089493    5.950104
 C    4.089493    5.950104   16.887512
 C   18.119895    4.852512    7.945507
 C    7.945507   18.119895    4.852512
 C    1.164988   12.102396   13.963007
 C   12.102396   13.963007    1.164988
 C   13.199989   24.002603   10.106993
 C   22.905012    0.067396   22.141993
 C    5.950104   16.887512    4.089493
 C   18.456877   16.945280   20.563001
 C    3.506999    6.421876   19.159720
 C    2.510501   13.142220   12.439376
 C   20.563001   18.456877   16.945280
 C   19.159720    3.506999    6.421876
 C    1.107220   23.665624   21.559500
 C   16.945280   20.563001   18.456877
 C    6.421876   19.159720    3.506999
 C   13.142220   12.439376    2.510501
 C    5.613124    4.910280   15.541998
 C   22.962780   11.630623   14.545500
 C   21.559500    1.107220   23.665624
 C   11.630623   14.545500   22.962780
 C   14.545500   22.962780   11.630623
 C   10.927780    0.404376    9.524499
 C   17.648124    7.124720    8.528001
 C    7.124720    8.528001   17.648124
 C   15.541998    5.613124    4.910280
 C    4.910280   15.541998    5.613124
 C    0.404376    9.524499   10.927780
 C    9.524499   10.927780    0.404376
 C   12.439376    2.510501   13.142220
 C   23.665624   21.559500    1.107220
 C    8.528001   17.648124    7.124720
 C   16.548125   19.020115   20.189916
 C    3.880084    4.513125   17.084886
 C    2.137416   11.067385   10.530625
 C   20.189916   16.548125   19.020115
 C   17.084886    3.880084    4.513125
 C   23.102386    1.504375   21.932585
 C   19.020115   20.189916   16.548125
 C    4.513125   17.084886    3.880084
 C   11.067385   10.530625    2.137416
 C    7.521875    6.985114   15.915083
 C    0.967614   13.539375   14.172416
 C   21.932585   23.102386    1.504375
 C   13.539375   14.172416    0.967614
 C   14.172416    0.967614   13.539375
 C   13.002614   22.565623    9.897584
 C   19.556875    5.049886    8.154915
 C    5.049886    8.154915   19.556875
 C   15.915083    7.521875    6.985114
 C    6.985114   15.915083    7.521875
 C   22.565623    9.897584   13.002614
 C    9.897584   13.002614   22.565623
 C   10.530625    2.137416   11.067385
 C    1.504375   21.932585   23.102386
 C    8.154915   19.556875    5.049886
 C   23.225143   21.990352   23.908731
 C    0.161269   11.190143   14.114647
 C    5.856231    8.097148   17.207643
 C   23.908731   23.225143   21.990352
 C   14.114647    0.161269   11.190143
 C   20.132149   18.897358   18.213770
 C   21.990352   23.908731   23.225143
 C   11.190143   14.114647    0.161269
 C    8.097148   17.207643    5.856231
 C    0.844857    9.955352   12.196268
 C    3.937852    6.862357   17.891231
 C   18.213770   20.132149   18.897358
 C    6.862357   17.891231    3.937852
 C   17.891231    3.937852    6.862357
 C   15.972851    5.172643    6.178769
 C   12.879856    2.079648   11.873731
 C    2.079648   11.873731   12.879856
 C   12.196268    0.844857    9.955352
 C    9.955352   12.196268    0.844857
 C    5.172643    6.178769   15.972851
 C    6.178769   15.972851    5.172643
 C   17.207643    5.856231    8.097148
 C   18.897358   18.213770   20.132149
 C   11.873731   12.879856    2.079648
 C   17.166723   16.791231   21.008294
 C    3.061704    5.131724   19.313768
 C    2.955796   13.296268   11.149224
 C   21.008294   17.166723   16.791231
 C   19.313768    3.061704    5.131724
 C    1.261268    0.885776   21.114204
 C   16.791231   21.008294   17.166723
 C    5.131724   19.313768    3.061704
 C   13.296268   11.149224    2.955796
 C    6.903276    4.756232   15.096704
 C   22.808730   12.920776   14.990796
 C   21.114204    1.261268    0.885776
 C   12.920776   14.990796   22.808730
 C   14.990796   22.808730   12.920776
 C   10.773732   23.184223    9.079203
 C   18.938276    7.278768    8.973296
 C    7.278768    8.973296   18.938276
 C   15.096704    6.903276    4.756232
 C    4.756232   15.096704    6.903276
 C   23.184223    9.079203   10.773732
 C    9.079203   10.773732   23.184223
 C   11.149224    2.955796   13.296268
 C    0.885776   21.114204    1.261268
 C    8.973296   18.938276    7.278768
 C   16.163005   17.814207   20.729083
 C    3.340916    4.128005   18.290792
 C    2.676584   12.273292   10.145505
 C   20.729083   16.163005   17.814207
 C   18.290792    3.340916    4.128005
 C    0.238293    1.889495   21.393415
 C   17.814207   20.729083   16.163005
 C    4.128005   18.290792    3.340916
 C   12.273292   10.145505    2.676584
 C    7.906995    5.779207   15.375915
 C   23.831707   13.924494   14.711583
 C   21.393415    0.238293    1.889495
 C   13.924494   14.711583   23.831707
 C   14.711583   23.831707   13.924494
 C   11.796707   22.180505    9.358416
 C   19.941996    6.255793    8.694084
 C    6.255793    8.694084   19.941996
 C   15.375915    7.906995    5.779207
 C    5.779207   15.375915    7.906995
 C   22.180505    9.358416   11.796707
 C    9.358416   11.796707   22.180505
 C   10.145505    2.676584   12.273292
 C    1.889495   21.393415    0.238293
 C    8.694084   19.941996    6.255793
 C   19.299326   15.891014   20.033461
 C    4.036539    7.264326   20.213986
 C    1.980961   14.196486   13.281826
 C   20.033461   19.299326   15.891014
 C   20.213986    4.036539    7.264326
 C    2.161486   22.823173   22.089039
 C   15.891014   20.033461   19.299326
 C    7.264326   20.213986    4.036539
 C   14.196486   13.281826    1.980961
 C    4.770674    3.856014   16.071539
 C   21.908514   10.788174   14.015961
 C   22.089039    2.161486   22.823173
 C   10.788174   14.015961   21.908514
 C   14.015961   21.908514   10.788174
 C    9.873514    1.246826   10.054039
 C   16.805673    8.178985    7.998460
 C    8.178985    7.998460   16.805673
 C   16.071539    4.770674    3.856014
 C    3.856014   16.071539    4.770674
 C    1.246826   10.054039    9.873514
 C   10.054039    9.873514    1.246826
 C   13.281826    1.980961   14.196486
 C   22.823173   22.089039    2.161486
 C    7.998460   16.805673    8.178985
 C   14.793422   17.303922   20.813329
 C    3.256671    2.758422   18.801076
 C    2.760829   12.783576    8.775922
 C   20.813329   14.793422   17.303922
 C   18.801076    3.256671    2.758422
 C    0.748577    3.259078   21.309172
 C   17.303922   20.813329   14.793422
 C    2.758422   18.801076    3.256671
 C   12.783576    8.775922    2.760829
 C    9.276578    5.268923   15.291670
 C   23.321422   15.294078   14.795829
 C   21.309172    0.748577    3.259078
 C   15.294078   14.795829   23.321422
 C   14.795829   23.321422   15.294078
 C   11.286423   20.810922    9.274170
 C   21.311579    6.766077    8.778329
 C    6.766077    8.778329   21.311579
 C   15.291670    9.276578    5.268923
 C    5.268923   15.291670    9.276578
 C   20.810922    9.274170   11.286423
 C    9.274170   11.286423   20.810922
 C    8.775922    2.760829   12.783576
 C    3.259078   21.309172    0.748577
 C    8.778329   21.311579    6.766077
 C   16.880291   15.477010   21.487289
 C    2.582711    4.845291   20.627991
 C    3.434789   14.610490   10.862791
 C   21.487289   16.880291   15.477010
 C   20.627991    2.582711    4.845291
 C    2.575490    1.172209   20.635212
 C   15.477010   21.487289   16.880291
 C    4.845291   20.627991    2.582711
 C   14.610490   10.862791    3.434789
 C    7.189709    3.442010   14.617710
 C   21.494510   13.207208   15.469788
 C   20.635212    2.575490    1.172209
 C   13.207208   15.469788   21.494510
 C   15.469788   21.494510   13.207208
 C    9.459510   22.897791    8.600211
 C   19.224708    8.592990    9.452289
 C    8.592990    9.452289   19.224708
 C   14.617710    7.189709    3.442010
 C    3.442010   14.617710    7.189709
 C   22.897791    8.600211    9.459510
 H   13.450317   21.598011   17.551844
 H    6.518156    1.415316   14.506989
 H   23.569344    8.489489    7.432816
 H   17.551844   13.450317   21.598011
 H   14.506989    6.518156    1.415316
 H   20.524489    4.602184    0.500656
 H   21.598011   17.551844   13.450317
 H    1.415316   14.506989    6.518156
 H    8.489489    7.432816   23.569344
 H   10.619684    9.563011   18.553156
 H    3.545511   16.637184   11.534343
 H    0.500656   20.524489    4.602184
 H   16.637184   11.534343    3.545511
 H   11.534343    3.545511   16.637184
 H   15.580511   19.467815   12.535656
 H   22.654684    2.471989    5.516844
 H    2.471989    5.516844   22.654684
 H   18.553156   10.619684    9.563011
 H    9.563011   18.553156   10.619684
 H   19.467815   12.535656   15.580511
 H   12.535656   15.580511   19.467815
 H    7.432816   23.569344    8.489489
 H    4.602184    0.500656   20.524489
 H    5.516844   22.654684    2.471989
 H   13.748784   20.127334   19.499107
 H    4.570893    1.713784   15.977666
 H    1.446607    9.960166    7.731284
 H   19.499107   13.748784   20.127334
 H   15.977666    4.570893    1.713784
 H   21.995167    4.303716   22.623392
 H   20.127334   19.499107   13.748784
 H    1.713784   15.977666    4.570893
 H    9.960166    7.731284    1.446607
 H   10.321216    8.092334   16.605892
 H    2.074834   16.338717   13.481607
 H   22.623392   21.995167    4.303716
 H   16.338717   13.481607    2.074834
 H   13.481607    2.074834   16.338717
 H   14.109834   19.766284   10.588393
 H   22.356217    3.942666    7.464107
 H    3.942666    7.464107   22.356217
 H   16.605892   10.321216    8.092334
 H    8.092334   16.605892   10.321216
 H   19.766284   10.588393   14.109834
 H   10.588393   14.109834   19.766284
 H    7.731284    1.446607    9.960166
 H    4.303716   22.623392   21.995167
 H    7.464107   22.356217    3.942666
 H   14.003925   17.898452   20.336742
 H    3.733257    1.968926   18.206549
 H    2.284243   12.189048    7.986426
 H   20.336742   14.003925   17.898452
 H   18.206549    3.733257    1.968926
 H    0.154048    4.048574   21.785756
 H   17.898452   20.336742   14.003925
 H    1.968926   18.206549    3.733257
 H   12.189048    7.986426    2.284243
 H   10.066074    5.863452   15.768257
 H   23.915952   16.083574   14.319243
 H   21.785756    0.154048    4.048574
 H   16.083574   14.319243   23.915952
 H   14.319243   23.915952   16.083574
 H   11.880951   20.021425    9.750757
 H   22.101074    6.171548    8.301742
 H    6.171548    8.301742   22.101074
 H   15.768257   10.066074    5.863452
 H    5.863452   15.768257   10.066074
 H   20.021425    9.750757   11.880951
 H    9.750757   11.880951   20.021425
 H    7.986426    2.284243   12.189048
 H    4.048574   21.785756    0.154048
 H    8.301742   22.101074    6.171548
 N    8.600211    9.459510   22.897791
 N   10.862791    3.434789   14.610490
 N    1.172209   20.635212    2.575490
 N    9.452289   19.224708    8.592990
