340
C4
 C    0.000000    0.000000    2.171259
 C    0.000000   12.822670    2.171259
 C   14.806344    0.000000    2.171259
 C   14.806344   12.822670    2.171259
 C    0.000000    0.000000   10.856297
 C    0.000000   12.822670   10.856297
 C   14.806344    0.000000   10.856297
 C   14.806344   12.822670   10.856297
 C    0.000000    4.274223    2.171259
 C   14.806344    4.274223    2.171259
 C    0.000000    4.274223   10.856297
 C   14.806344    4.274223   10.856297
 C    0.000000    8.548447    2.171259
 C   14.806344    8.548447    2.171259
 C    0.000000    8.548447   10.856297
 C   14.806344    8.548447   10.856297
 C    4.935448    0.000000    2.171259
 C    4.935448   12.822670    2.171259
 C    4.935448    0.000000   10.856297
 C    4.935448   12.822670   10.856297
 C    4.935448    4.274223    2.171259
 C    4.935448    4.274223   10.856297
 C    4.935448    8.548447    2.171259
 C    4.935448    8.548447   10.856297
 C    9.870896    0.000000    2.171259
 C    9.870896   12.822670    2.171259
 C    9.870896    0.000000   10.856297
 C    9.870896   12.822670   10.856297
 C    9.870896    4.274223    2.171259
 C    9.870896    4.274223   10.856297
 C    9.870896    8.548447    2.171259
 C    9.870896    8.548447   10.856297
 C    2.467724    0.000000    2.171259
 C    2.467724   12.822670    2.171259
 C    2.467724    0.000000   10.856297
 C    2.467724   12.822670   10.856297
 C    2.467724    4.274223    2.171259
 C    2.467724    4.274223   10.856297
 C    2.467724    8.548447    2.171259
 C    2.467724    8.548447   10.856297
 C    7.403172    0.000000    2.171259
 C    7.403172   12.822670    2.171259
 C    7.403172    0.000000   10.856297
 C    7.403172   12.822670   10.856297
 C    7.403172    4.274223    2.171259
 C    7.403172    4.274223   10.856297
 C    7.403172    8.548447    2.171259
 C    7.403172    8.548447   10.856297
 C   12.338620    0.000000    2.171259
 C   12.338620   12.822670    2.171259
 C   12.338620    0.000000   10.856297
 C   12.338620   12.822670   10.856297
 C   12.338620    4.274223    2.171259
 C   12.338620    4.274223   10.856297
 C   12.338620    8.548447    2.171259
 C   12.338620    8.548447   10.856297
 C    3.701586    2.137111    2.171259
 C    3.701586    2.137111   10.856297
 C    3.701586    6.411335    2.171259
 C    3.701586    6.411335   10.856297
 C    3.701586   10.685558    2.171259
 C    3.701586   10.685558   10.856297
 C    8.637034    2.137111    2.171259
 C    8.637034    2.137111   10.856297
 C    8.637034    6.411335    2.171259
 C    8.637034    6.411335   10.856297
 C    8.637034   10.685558    2.171259
 C    8.637034   10.685558   10.856297
 C   13.572482    2.137111    2.171259
 C   13.572482    2.137111   10.856297
 C   13.572482    6.411335    2.171259
 C   13.572482    6.411335   10.856297
 C   13.572482   10.685558    2.171259
 C   13.572482   10.685558   10.856297
 C    1.233862    2.137111    2.171259
 C    1.233862    2.137111   10.856297
 C    1.233862    6.411335    2.171259
 C    1.233862    6.411335   10.856297
 C    1.233862   10.685558    2.171259
 C    1.233862   10.685558   10.856297
 C    6.169310    2.137111    2.171259
 C    6.169310    2.137111   10.856297
 C    6.169310    6.411335    2.171259
 C    6.169310    6.411335   10.856297
 C    6.169310   10.685558    2.171259
 C    6.169310   10.685558   10.856297
 C   11.104758    2.137111    2.171259
 C   11.104758    2.137111   10.856297
 C   11.104758    6.411335    2.171259
 C   11.104758    6.411335   10.856297
 C   11.104758   10.685558    2.171259
 C   11.104758   10.685558   10.856297
 C    0.000000    0.000000    6.513778
 C    0.000000   12.822670    6.513778
 C   14.806344    0.000000    6.513778
 C   14.806344   12.822670    6.513778
 C    0.000000    0.000000   15.198816
 C    0.000000   12.822670   15.198816
 C   14.806344    0.000000   15.198816
 C   14.806344   12.822670   15.198816
 C    0.000000    4.274223    6.513778
 C   14.806344    4.274223    6.513778
 C    0.000000    4.274223   15.198816
 C   14.806344    4.274223   15.198816
 C    0.000000    8.548447    6.513778
 C   14.806344    8.548447    6.513778
 C    0.000000    8.548447   15.198816
 C   14.806344    8.548447   15.198816
 C    4.935448    0.000000    6.513778
 C    4.935448   12.822670    6.513778
 C    4.935448    0.000000   15.198816
 C    4.935448   12.822670   15.198816
 C    4.935448    4.274223    6.513778
 C    4.935448    4.274223   15.198816
 C    4.935448    8.548447    6.513778
 C    4.935448    8.548447   15.198816
 C    9.870896    0.000000    6.513778
 C    9.870896   12.822670    6.513778
 C    9.870896    0.000000   15.198816
 C    9.870896   12.822670   15.198816
 C    9.870896    4.274223    6.513778
 C    9.870896    4.274223   15.198816
 C    9.870896    8.548447    6.513778
 C    9.870896    8.548447   15.198816
 C    2.467724    0.000000    6.513778
 C    2.467724   12.822670    6.513778
 C    2.467724    0.000000   15.198816
 C    2.467724   12.822670   15.198816
 C    2.467724    4.274223    6.513778
 C    2.467724    4.274223   15.198816
 C    2.467724    8.548447    6.513778
 C    2.467724    8.548447   15.198816
 C    7.403172    0.000000    6.513778
 C    7.403172   12.822670    6.513778
 C    7.403172    0.000000   15.198816
 C    7.403172   12.822670   15.198816
 C    7.403172    4.274223    6.513778
 C    7.403172    4.274223   15.198816
 C    7.403172    8.548447    6.513778
 C    7.403172    8.548447   15.198816
 C   12.338620    0.000000    6.513778
 C   12.338620   12.822670    6.513778
 C   12.338620    0.000000   15.198816
 C   12.338620   12.822670   15.198816
 C   12.338620    4.274223    6.513778
 C   12.338620    4.274223   15.198816
 C   12.338620    8.548447    6.513778
 C   12.338620    8.548447   15.198816
 C    3.701586    2.137111    6.513778
 C    3.701586    2.137111   15.198816
 C    3.701586    6.411335    6.513778
 C    3.701586    6.411335   15.198816
 C    3.701586   10.685558    6.513778
 C    3.701586   10.685558   15.198816
 C    8.637034    2.137111    6.513778
 C    8.637034    2.137111   15.198816
 C    8.637034    6.411335    6.513778
 C    8.637034    6.411335   15.198816
 C    8.637034   10.685558    6.513778
 C    8.637034   10.685558   15.198816
 C   13.572482    2.137111    6.513778
 C   13.572482    2.137111   15.198816
 C   13.572482    6.411335    6.513778
 C   13.572482    6.411335   15.198816
 C   13.572482   10.685558    6.513778
 C   13.572482   10.685558   15.198816
 C    1.233862    2.137111    6.513778
 C    1.233862    2.137111   15.198816
 C    1.233862    6.411335    6.513778
 C    1.233862    6.411335   15.198816
 C    1.233862   10.685558    6.513778
 C    1.233862   10.685558   15.198816
 C    6.169310    2.137111    6.513778
 C    6.169310    2.137111   15.198816
 C    6.169310    6.411335    6.513778
 C    6.169310    6.411335   15.198816
 C    6.169310   10.685558    6.513778
 C    6.169310   10.685558   15.198816
 C   11.104758    2.137111    6.513778
 C   11.104758    2.137111   15.198816
 C   11.104758    6.411335    6.513778
 C   11.104758    6.411335   15.198816
 C   11.104758   10.685558    6.513778
 C   11.104758   10.685558   15.198816
 C    1.233862    0.712371    2.171259
 C    1.233862    0.712371   10.856297
 C    1.233862    4.986594    2.171259
 C    1.233862    4.986594   10.856297
 C    1.233862    9.260818    2.171259
 C    1.233862    9.260818   10.856297
 C    6.169310    0.712371    2.171259
 C    6.169310    0.712371   10.856297
 C    6.169310    4.986594    2.171259
 C    6.169310    4.986594   10.856297
 C    6.169310    9.260818    2.171259
 C    6.169310    9.260818   10.856297
 C   11.104758    0.712371    2.171259
 C   11.104758    0.712371   10.856297
 C   11.104758    4.986594    2.171259
 C   11.104758    4.986594   10.856297
 C   11.104758    9.260818    2.171259
 C   11.104758    9.260818   10.856297
 C    3.701586    0.712371    2.171259
 C    3.701586    0.712371   10.856297
 C    3.701586    4.986594    2.171259
 C    3.701586    4.986594   10.856297
 C    3.701586    9.260818    2.171259
 C    3.701586    9.260818   10.856297
 C    8.637034    0.712371    2.171259
 C    8.637034    0.712371   10.856297
 C    8.637034    4.986594    2.171259
 C    8.637034    4.986594   10.856297
 C    8.637034    9.260818    2.171259
 C    8.637034    9.260818   10.856297
 C   13.572482    0.712371    2.171259
 C   13.572482    0.712371   10.856297
 C   13.572482    4.986594    2.171259
 C   13.572482    4.986594   10.856297
 C   13.572482    9.260818    2.171259
 C   13.572482    9.260818   10.856297
 C    0.000000    2.849482    2.171259
 C   14.806344    2.849482    2.171259
 C    0.000000    2.849482   10.856297
 C   14.806344    2.849482   10.856297
 C    0.000000    7.123706    2.171259
 C   14.806344    7.123706    2.171259
 C    0.000000    7.123706   10.856297
 C   14.806344    7.123706   10.856297
 C    0.000000   11.397929    2.171259
 C   14.806344   11.397929    2.171259
 C    0.000000   11.397929   10.856297
 C   14.806344   11.397929   10.856297
 C    4.935448    2.849482    2.171259
 C    4.935448    2.849482   10.856297
 C    4.935448    7.123706    2.171259
 C    4.935448    7.123706   10.856297
 C    4.935448   11.397929    2.171259
 C    4.935448   11.397929   10.856297
 C    9.870896    2.849482    2.171259
 C    9.870896    2.849482   10.856297
 C    9.870896    7.123706    2.171259
 C    9.870896    7.123706   10.856297
 C    9.870896   11.397929    2.171259
 C    9.870896   11.397929   10.856297
 C    2.467724    2.849482    2.171259
 C    2.467724    2.849482   10.856297
 C    2.467724    7.123706    2.171259
 C    2.467724    7.123706   10.856297
 C    2.467724   11.397929    2.171259
 C    2.467724   11.397929   10.856297
 C    7.403172    2.849482    2.171259
 C    7.403172    2.849482   10.856297
 C    7.403172    7.123706    2.171259
 C    7.403172    7.123706   10.856297
 C    7.403172   11.397929    2.171259
 C    7.403172   11.397929   10.856297
 C   12.338620    2.849482    2.171259
 C   12.338620    2.849482   10.856297
 C   12.338620    7.123706    2.171259
 C   12.338620    7.123706   10.856297
 C   12.338620   11.397929    2.171259
 C   12.338620   11.397929   10.856297
 C    0.000000    1.424741    6.513778
 C   14.806344    1.424741    6.513778
 C    0.000000    1.424741   15.198816
 C   14.806344    1.424741   15.198816
 C    0.000000    5.698965    6.513778
 C   14.806344    5.698965    6.513778
 C    0.000000    5.698965   15.198816
 C   14.806344    5.698965   15.198816
 C    0.000000    9.973188    6.513778
 C   14.806344    9.973188    6.513778
 C    0.000000    9.973188   15.198816
 C   14.806344    9.973188   15.198816
 C    4.935448    1.424741    6.513778
 C    4.935448    1.424741   15.198816
 C    4.935448    5.698965    6.513778
 C    4.935448    5.698965   15.198816
 C    4.935448    9.973188    6.513778
 C    4.935448    9.973188   15.198816
 C    9.870896    1.424741    6.513778
 C    9.870896    1.424741   15.198816
 C    9.870896    5.698965    6.513778
 C    9.870896    5.698965   15.198816
 C    9.870896    9.973188    6.513778
 C    9.870896    9.973188   15.198816
 C    2.467724    1.424741    6.513778
 C    2.467724    1.424741   15.198816
 C    2.467724    5.698965    6.513778
 C    2.467724    5.698965   15.198816
 C    2.467724    9.973188    6.513778
 C    2.467724    9.973188   15.198816
 C    7.403172    1.424741    6.513778
 C    7.403172    1.424741   15.198816
 C    7.403172    5.698965    6.513778
 C    7.403172    5.698965   15.198816
 C    7.403172    9.973188    6.513778
 C    7.403172    9.973188   15.198816
 C   12.338620    1.424741    6.513778
 C   12.338620    1.424741   15.198816
 C   12.338620    5.698965    6.513778
 C   12.338620    5.698965   15.198816
 C   12.338620    9.973188    6.513778
 C   12.338620    9.973188   15.198816
 C    3.701586    3.561852    6.513778
 C    3.701586    3.561852   15.198816
 C    3.701586    7.836076    6.513778
 C    3.701586    7.836076   15.198816
 C    3.701586   12.110299    6.513778
 C    3.701586   12.110299   15.198816
 C    8.637034    3.561852    6.513778
 C    8.637034    3.561852   15.198816
 C    8.637034    7.836076    6.513778
 C    8.637034    7.836076   15.198816
 C    8.637034   12.110299    6.513778
 C    8.637034   12.110299   15.198816
 C   13.572482    3.561852    6.513778
 C   13.572482    3.561852   15.198816
 C   13.572482    7.836076    6.513778
 C   13.572482    7.836076   15.198816
 C   13.572482   12.110299    6.513778
 C   13.572482   12.110299   15.198816
 C    1.233862    3.561852    6.513778
 C    1.233862    3.561852   15.198816
 C    1.233862    7.836076    6.513778
 C    1.233862    7.836076   15.198816
 C    1.233862   12.110299    6.513778
 C    1.233862   12.110299   15.198816
 C    6.169310    3.561852    6.513778
 C    6.169310    3.561852   15.198816
 C    6.169310    7.836076    6.513778
 C    6.169310    7.836076   15.198816
 C    6.169310   12.110299    6.513778
 C    6.169310   12.110299   15.198816
 C   11.104758    3.561852    6.513778
 C   11.104758    3.561852   15.198816
 C   11.104758    7.836076    6.513778
 C   11.104758    7.836076   15.198816
 C   11.104758   12.110299    6.513778
 C   11.104758   12.110299   15.198816
