         360

C           17.69867  14.39386  21.16234
C            2.77286   5.66367  21.57635
C            3.10984  15.55885  11.68117
C           21.16234  17.69867  14.39386
C           21.57635   2.77286   5.66367
C            3.52385   0.21904  20.82536
C           14.39386  21.16234  17.69867
C            5.66367  21.57635   2.77286
C           15.55885  11.68117   3.10984
C            6.23654   2.35886  14.80786
C           20.41136  12.25404  15.14485
C           20.82536   3.52385   0.21904
C           12.25404  15.14485  20.41136
C           15.14485  20.41136  12.25404
C            8.37636  23.71617   8.79036
C           18.27154   9.54135   9.12734
C            9.54135   9.12734  18.27154
C           14.80786   6.23654   2.35886
C            2.35886  14.80786   6.23654
C           23.71617   8.79036   8.37636
C            8.79036   8.37636  23.71617
C           11.68117   3.10984  15.55885
C            0.21904  20.82536   3.52385
C            9.12734  18.27154   9.54135
C           18.87329  14.56957  20.35359
C            3.58162   6.83829  21.40064
C            2.30109  15.38314  12.85579
C           20.35359  18.87329  14.56957
C           21.40064   3.58162   6.83829
C            3.34814  23.11442  21.63412
C           14.56957  20.35359  18.87329
C            6.83829  21.40064   3.58162
C           15.38314  12.85579   2.30109
C            5.06192   2.53457  15.61662
C           20.58707  11.07942  14.33609
C           21.63412   3.34814  23.11442
C           11.07942  14.33609  20.58707
C           14.33609  20.58707  11.07942
C            8.55207   0.82079   9.59911
C           17.09692   9.36564   8.31859
C            9.36564   8.31859  17.09692
C           15.61662   5.06192   2.53457
C            2.53457  15.61662   5.06192
C            0.82079   9.59911   8.55207
C            9.59911   8.55207   0.82079
C           12.85579   2.30109  15.38314
C           23.11442  21.63412   3.34814
C            8.31859  17.09692   9.36564
C           15.49145  15.31574  22.07460
C            1.86061   3.45645  20.65447
C            4.02210  14.63697   9.47395
C           22.07460  15.49145  15.31574
C           20.65447   1.86061   3.45645
C            2.60197   2.42626  19.91311
C           15.31574  22.07460  15.49145
C            3.45645  20.65447   1.86061
C           14.63697   9.47395   4.02210
C            8.44376   3.28074  13.89561
C           21.33324  14.46126  16.05710
C           19.91311   2.60197   2.42626
C           14.46126  16.05710  21.33324
C           16.05710  21.33324  14.46126
C            9.29824  21.50895   7.87811
C           20.47876   8.61947  10.03960
C            8.61947  10.03960  20.47876
C           13.89561   8.44376   3.28074
C            3.28074  13.89561   8.44376
C           21.50895   7.87811   9.29824
C            7.87811   9.29824  21.50895
C            9.47395   4.02210  14.63697
C            2.42626  19.91311   2.60197
C           10.03960  20.47876   8.61947
C           19.15009  19.91311  17.91771
C            6.01750   7.11509  16.05710
C           23.93521  10.03960  13.13259
C           17.91771  19.15009  19.91311
C           16.05710   6.01750   7.11509
C           22.07460  22.83762   0.00000
C           19.91311  17.91771  19.15009
C            7.11509  16.05710   6.01750
C           10.03960  13.13259  23.93521
C            4.78512   7.87811  18.05250
C            1.86061  10.80262  11.90021
C            0.00000  22.07460  22.83762
C           10.80262  11.90021   1.86061
C           11.90021   1.86061  10.80262
C           13.89561   1.09759  12.03500
C           16.82012   4.02210   5.88271
C            4.02210   5.88271  16.82012
C           18.05250   4.78512   7.87811
C            7.87811  18.05250   4.78512
C            1.09759  12.03500  13.89561
C           12.03500  13.89561   1.09759
C           13.13259  23.93521  10.03960
C           22.83762   0.00000  22.07460
C            5.88271  16.82012   4.02210
C           18.38948  16.87788  20.49561
C            3.43960   6.35448  19.09232
C            2.44311  13.07482  12.37198
C           20.49561  18.38948  16.87788
C           19.09232   3.43960   6.35448
C            1.03982  23.59823  21.49210
C           16.87788  20.49561  18.38948
C            6.35448  19.09232   3.43960
C           13.07482  12.37198   2.44311
C            5.54573   4.84288  15.47460
C           22.89538  11.56323  14.47810
C           21.49210   1.03982  23.59823
C           11.56323  14.47810  22.89538
C           14.47810  22.89538  11.56323
C           10.86038   0.33698   9.45710
C           17.58073   7.05732   8.46060
C            7.05732   8.46060  17.58073
C           15.47460   5.54573   4.84288
C            4.84288  15.47460   5.54573
C            0.33698   9.45710  10.86038
C            9.45710  10.86038   0.33698
C           12.37198   2.44311  13.07482
C           23.59823  21.49210   1.03982
C            8.46060  17.58073   7.05732
C           16.48073  18.95272  20.12252
C            3.81269   4.44573  17.01749
C            2.07002  10.99999  10.46323
C           20.12252  16.48073  18.95272
C           17.01749   3.81269   4.44573
C           23.03499   1.43698  21.86519
C           18.95272  20.12252  16.48073
C            4.44573  17.01749   3.81269
C           10.99999  10.46323   2.07002
C            7.45448   6.91772  15.84769
C            0.90022  13.47198  14.10502
C           21.86519  23.03499   1.43698
C           13.47198  14.10502   0.90022
C           14.10502   0.90022  13.47198
C           12.93522  22.49823   9.83019
C           19.48948   4.98249   8.08752
C            4.98249   8.08752  19.48948
C           15.84769   7.45448   6.91772
C            6.91772  15.84769   7.45448
C           22.49823   9.83019  12.93522
C            9.83019  12.93522  22.49823
C           10.46323   2.07002  10.99999
C            1.43698  21.86519  23.03499
C            8.08752  19.48948   4.98249
C           23.15775  21.92296  23.84134
C            0.09387  11.12275  14.04725
C            5.78884   8.02975  17.14025
C           23.84134  23.15775  21.92296
C           14.04725   0.09387  11.12275
C           20.06475  18.82996  18.14637
C           21.92296  23.84134  23.15775
C           11.12275  14.04725   0.09387
C            8.02975  17.14025   5.78884
C            0.77746   9.88796  12.12887
C            3.87046   6.79496  17.82384
C           18.14637  20.06475  18.82996
C            6.79496  17.82384   3.87046
C           17.82384   3.87046   6.79496
C           15.90545   5.10525   6.11137
C           12.81246   2.01225  11.80633
C            2.01225  11.80633  12.81246
C           12.12887   0.77746   9.88796
C            9.88796  12.12887   0.77746
C            5.10525   6.11137  15.90545
C            6.11137  15.90545   5.10525
C           17.14025   5.78884   8.02975
C           18.82996  18.14637  20.06475
C           11.80633  12.81246   2.01225
C           17.09933  16.72384  20.94090
C            2.99431   5.06433  19.24637
C            2.88840  13.22887  11.08183
C           20.94090  17.09933  16.72384
C           19.24637   2.99431   5.06433
C            1.19387   0.81838  21.04681
C           16.72384  20.94090  17.09933
C            5.06433  19.24637   2.99431
C           13.22887  11.08183   2.88840
C            6.83588   4.68884  15.02931
C           22.74133  12.85338  14.92340
C           21.04681   1.19387   0.81838
C           12.85338  14.92340  22.74133
C           14.92340  22.74133  12.85338
C           10.70634  23.11683   9.01181
C           18.87088   7.21137   8.90590
C            7.21137   8.90590  18.87088
C           15.02931   6.83588   4.68884
C            4.68884  15.02931   6.83588
C           23.11683   9.01181  10.70634
C            9.01181  10.70634  23.11683
C           11.08183   2.88840  13.22887
C            0.81838  21.04681   1.19387
C            8.90590  18.87088   7.21137
C           16.09561  17.74681  20.66169
C            3.27352   4.06061  18.22340
C            2.60919  12.20590  10.07811
C           20.66169  16.09561  17.74681
C           18.22340   3.27352   4.06061
C            0.17090   1.82210  21.32602
C           17.74681  20.66169  16.09561
C            4.06061  18.22340   3.27352
C           12.20590  10.07811   2.60919
C            7.83960   5.71181  15.30852
C           23.76431  13.85710  14.64419
C           21.32602   0.17090   1.82210
C           13.85710  14.64419  23.76431
C           14.64419  23.76431  13.85710
C           11.72931  22.11311   9.29102
C           19.87460   6.18840   8.62669
C            6.18840   8.62669  19.87460
C           15.30852   7.83960   5.71181
C            5.71181  15.30852   7.83960
C           22.11311   9.29102  11.72931
C            9.29102  11.72931  22.11311
C           10.07811   2.60919  12.20590
C            1.82210  21.32602   0.17090
C            8.62669  19.87460   6.18840
C           19.23193  15.82362  19.96607
C            3.96914   7.19693  20.14659
C            1.91356  14.12909  13.21443
C           19.96607  19.23193  15.82362
C           20.14659   3.96914   7.19693
C            2.09409  22.75578  22.02164
C           15.82362  19.96607  19.23193
C            7.19693  20.14659   3.96914
C           14.12909  13.21443   1.91356
C            4.70328   3.78862  16.00414
C           21.84112  10.72078  13.94857
C           22.02164   2.09409  22.75578
C           10.72078  13.94857  21.84112
C           13.94857  21.84112  10.72078
C            9.80612   1.17943   9.98664
C           16.73828   8.11159   7.93106
C            8.11159   7.93106  16.73828
C           16.00414   4.70328   3.78862
C            3.78862  16.00414   4.70328
C            1.17943   9.98664   9.80612
C            9.98664   9.80612   1.17943
C           13.21443   1.91356  14.12909
C           22.75578  22.02164   2.09409
C            7.93106  16.73828   8.11159
C           14.72603  17.23653  20.74593
C            3.18927   2.69103  18.73368
C            2.69343  12.71618   8.70853
C           20.74593  14.72603  17.23653
C           18.73368   3.18927   2.69103
C            0.68118   3.19168  21.24178
C           17.23653  20.74593  14.72603
C            2.69103  18.73368   3.18927
C           12.71618   8.70853   2.69343
C            9.20918   5.20153  15.22427
C           23.25403  15.22668  14.72843
C           21.24178   0.68118   3.19168
C           15.22668  14.72843  23.25403
C           14.72843  23.25403  15.22668
C           11.21903  20.74353   9.20677
C           21.24418   6.69868   8.71093
C            6.69868   8.71093  21.24418
C           15.22427   9.20918   5.20153
C            5.20153  15.22427   9.20918
C           20.74353   9.20677  11.21903
C            9.20677  11.21903  20.74353
C            8.70853   2.69343  12.71618
C            3.19168  21.24178   0.68118
C            8.71093  21.24418   6.69868
C           16.81290  15.40961  21.41989
C            2.51532   4.77790  20.56060
C            3.36739  14.54309  10.79539
C           21.41989  16.81290  15.40961
C           20.56060   2.51532   4.77790
C            2.50809   1.10481  20.56782
C           15.40961  21.41989  16.81290
C            4.77790  20.56060   2.51532
C           14.54309  10.79539   3.36739
C            7.12231   3.37461  14.55031
C           21.42711  13.13981  15.40239
C           20.56782   2.50809   1.10481
C           13.13981  15.40239  21.42711
C           15.40239  21.42711  13.13981
C            9.39211  22.83040   8.53281
C           19.15731   8.52559   9.38489
C            8.52559   9.38489  19.15731
C           14.55031   7.12231   3.37461
C            3.37461  14.55031   7.12231
C           22.83040   8.53281   9.39211
H           13.38292  21.53062  17.48445
H            6.45076   1.34792  14.43959
H           23.50195   8.42209   7.36542
H           17.48445  13.38292  21.53062
H           14.43959   6.45076   1.34792
H           20.45709   4.53479   0.43326
H           21.53062  17.48445  13.38292
H            1.34792  14.43959   6.45076
H            8.42209   7.36542  23.50195
H           10.55229   9.49561  18.48576
H            3.47811  16.56979  11.46695
H            0.43326  20.45709   4.53479
H           16.56979  11.46695   3.47811
H           11.46695   3.47811  16.56979
H           15.51311  19.40042  12.46826
H           22.58729   2.40459   5.44945
H            2.40459   5.44945  22.58729
H           18.48576  10.55229   9.49561
H            9.49561  18.48576  10.55229
H           19.40042  12.46826  15.51311
H           12.46826  15.51311  19.40042
H            7.36542  23.50195   8.42209
H            4.53479   0.43326  20.45709
H            5.44945  22.58729   2.40459
H           13.68139  20.05994  19.43171
H            4.50350   1.64639  15.91027
H            1.37921   9.89277   7.66389
H           19.43171  13.68139  20.05994
H           15.91027   4.50350   1.64639
H           21.92777   4.23632  22.55600
H           20.05994  19.43171  13.68139
H            1.64639  15.91027   4.50350
H            9.89277   7.66389   1.37921
H           10.25382   8.02494  16.53850
H            2.00744  16.27132  13.41421
H           22.55600  21.92777   4.23632
H           16.27132  13.41421   2.00744
H           13.41421   2.00744  16.27132
H           14.04244  19.69889  10.52100
H           22.28882   3.87527   7.39671
H            3.87527   7.39671  22.28882
H           16.53850  10.25382   8.02494
H            8.02494  16.53850  10.25382
H           19.69889  10.52100  14.04244
H           10.52100  14.04244  19.69889
H            7.66389   1.37921   9.89277
H            4.23632  22.55600  21.92777
H            7.39671  22.28882   3.87527
H           13.93653  17.83106  20.26935
H            3.66586   1.90153  18.13915
H            2.21685  12.12165   7.91903
H           20.26935  13.93653  17.83106
H           18.13915   3.66586   1.90153
H            0.08665   3.98118  21.71836
H           17.83106  20.26935  13.93653
H            1.90153  18.13915   3.66586
H           12.12165   7.91903   2.21685
H            9.99868   5.79606  15.70086
H           23.84856  16.01618  14.25185
H           21.71836   0.08665   3.98118
H           16.01618  14.25185  23.84856
H           14.25185  23.84856  16.01618
H           11.81355  19.95403   9.68336
H           22.03368   6.10415   8.23435
H            6.10415   8.23435  22.03368
H           15.70086   9.99868   5.79606
H            5.79606  15.70086   9.99868
H           19.95403   9.68336  11.81355
H            9.68336  11.81355  19.95403
H            7.91903   2.21685  12.12165
H            3.98118  21.71836   0.08665
H            8.23435  22.03368   6.10415
B            8.53281   9.39211  22.83040
B           10.79539   3.36739  14.54309
B            1.10481  20.56782   2.50809
B            9.38489  19.15731   8.52559
